* NGSPICE file created from user_analog_project_wrapper.ext - technology: sky130A

.subckt skullfet_inverter_xl VGND VPWR Y A
X0 Y A VPWR VPWR sky130_fd_pr__pfet_01v8 ad=0p pd=0u as=0p ps=0u w=4.05e+07u l=4e+06u
X1 VGND A Y VGND sky130_fd_pr__nfet_01v8 ad=0p pd=0u as=0p ps=0u w=4.05e+07u l=4e+06u
C0 m3_5680_11480# Y 1.14fF
C1 A m3_7300_4460# 0.35fF
C2 Y m1_7300_21740# 18.27fF
C3 m5_7300_21740# A 0.32fF
C4 A m1_5680_11480# 2.79fF
C5 m2_5680_11480# Y 1.21fF
C6 m4_7300_4460# m3_7300_4460# 103.49fF
C7 A m4_7300_4460# 0.30fF
C8 Y m2_7300_21740# 0.49fF
C9 m4_5680_11480# m5_5680_11480# 57.01fF
C10 m4_5680_11480# m3_5680_11480# 70.42fF
C11 m5_7300_4460# Y 0.32fF
C12 m1_7300_4460# m2_7300_4460# 165.09fF
C13 m5_7300_4460# VPWR 0.96fF
C14 m3_7300_21740# m2_7300_21740# 105.95fF
C15 VPWR Y 3.59fF
C16 A m1_7300_4460# 7.67fF
C17 A m5_5680_11480# 1.57fF
C18 A m3_5680_11480# 1.90fF
C19 m3_7300_21740# Y 0.41fF
C20 m4_7300_21740# Y 0.32fF
C21 A m1_7300_21740# 7.67fF
C22 m4_5680_11480# Y 0.93fF
C23 m2_5680_11480# A 1.98fF
C24 A m2_7300_21740# 0.33fF
C25 m4_7300_21740# m3_7300_21740# 103.49fF
C26 Y m2_7300_4460# 0.54fF
C27 A m5_7300_4460# 0.32fF
C28 VPWR m2_7300_4460# 1.53fF
C29 m2_5680_11480# m1_5680_11480# 112.34fF
C30 Y m3_7300_4460# 0.45fF
C31 VPWR m3_7300_4460# 1.30fF
C32 A VPWR 1.69fF
C33 m5_7300_4460# m4_7300_4460# 83.78fF
C34 m5_7300_21740# Y 0.30fF
C35 Y m1_5680_11480# 4.11fF
C36 m4_7300_4460# Y 0.34fF
C37 VPWR m1_5680_11480# 2.52fF
C38 m4_7300_4460# VPWR 1.01fF
C39 m3_7300_21740# A 0.35fF
C40 m4_7300_21740# A 0.30fF
C41 m2_5680_11480# m3_5680_11480# 72.10fF
C42 m4_5680_11480# A 1.55fF
C43 m5_7300_21740# m4_7300_21740# 83.78fF
C44 Y m1_7300_4460# 18.36fF
C45 m5_5680_11480# Y 0.92fF
C46 m2_7300_21740# m1_7300_21740# 165.09fF
C47 m3_7300_4460# m2_7300_4460# 105.95fF
C48 A m2_7300_4460# 0.33fF
C49 VPWR m1_7300_4460# 18.46fF
C50 Y VGND 1.24fF
C51 A VGND 0.99fF
C52 VPWR VGND 0.72fF
C53 m5_7300_4460# VGND 10.65fF $ **FLOATING
C54 m5_5680_11480# VGND 11.20fF $ **FLOATING
C55 m5_7300_21740# VGND 11.60fF $ **FLOATING
C56 m4_7300_4460# VGND 10.10fF $ **FLOATING
C57 m4_5680_11480# VGND 10.62fF $ **FLOATING
C58 m4_7300_21740# VGND 11.11fF $ **FLOATING
C59 m3_7300_4460# VGND 11.19fF $ **FLOATING
C60 m3_5680_11480# VGND 11.77fF $ **FLOATING
C61 m3_7300_21740# VGND 12.50fF $ **FLOATING
C62 m2_7300_4460# VGND 11.19fF $ **FLOATING
C63 m2_5680_11480# VGND 11.77fF $ **FLOATING
C64 m2_7300_21740# VGND 12.73fF $ **FLOATING
C65 m1_7300_4460# VGND 11.19fF $ **FLOATING
C66 m1_5680_11480# VGND 30.45fF $ **FLOATING
C67 m1_7300_21740# VGND 29.19fF $ **FLOATING
.ends

.subckt skullfet_inverter VGND VPWR Y A m1_730_2174# m1_568_1148#
X0 VGND A Y VGND sky130_fd_pr__nfet_01v8 ad=0p pd=0u as=0p ps=0u w=4.05e+06u l=400000u
X1 Y A VPWR VPWR sky130_fd_pr__pfet_01v8 ad=0p pd=0u as=0p ps=0u w=4.05e+06u l=400000u
C0 m1_730_446# m2_730_446# 1.65fF
C1 Y m1_730_2174# 0.25fF
C2 A m2_568_1148# 0.20fF
C3 Y m2_730_446# 0.05fF
C4 m1_568_1148# VPWR 0.03fF
C5 A m2_730_2174# 0.03fF
C6 m1_730_446# VPWR 0.54fF
C7 m1_568_1148# m2_568_1148# 1.12fF
C8 Y VPWR 0.04fF
C9 Y m2_568_1148# 0.12fF
C10 VPWR m2_730_446# 0.06fF
C11 m1_568_1148# A 0.26fF
C12 m1_730_446# A 0.11fF
C13 m1_730_2174# m2_730_2174# 1.65fF
C14 m2_730_446# m2_568_1148# 0.19fF
C15 Y m2_730_2174# 0.05fF
C16 m1_568_1148# m1_730_446# 0.17fF
C17 A m1_730_2174# 0.11fF
C18 A m2_730_446# 0.03fF
C19 m1_568_1148# m1_730_2174# 0.22fF
C20 m1_568_1148# Y 0.19fF
C21 m1_730_446# Y 0.26fF
C22 m2_730_2174# m2_568_1148# 0.25fF
C23 Y VGND 0.65fF
C24 A VGND 0.14fF
C25 VPWR VGND 0.08fF
C26 m2_730_446# VGND 1.15fF $ **FLOATING
C27 m2_568_1148# VGND 1.18fF $ **FLOATING
C28 m2_730_2174# VGND 1.21fF $ **FLOATING
C29 m1_730_446# VGND 1.15fF $ **FLOATING
C30 m1_568_1148# VGND 1.36fF
C31 m1_730_2174# VGND 1.73fF
.ends

.subckt user_analog_project_wrapper gpio_analog[0] gpio_analog[10] gpio_analog[11]
+ gpio_analog[12] gpio_analog[13] gpio_analog[14] gpio_analog[15] gpio_analog[16]
+ gpio_analog[17] gpio_analog[1] gpio_analog[2] gpio_analog[3] gpio_analog[4] gpio_analog[5]
+ gpio_analog[6] gpio_analog[7] gpio_analog[8] gpio_analog[9] gpio_noesd[0] gpio_noesd[10]
+ gpio_noesd[11] gpio_noesd[12] gpio_noesd[13] gpio_noesd[14] gpio_noesd[15] gpio_noesd[16]
+ gpio_noesd[17] gpio_noesd[1] gpio_noesd[2] gpio_noesd[3] gpio_noesd[4] gpio_noesd[5]
+ gpio_noesd[6] gpio_noesd[7] gpio_noesd[8] gpio_noesd[9] io_analog[0] io_analog[10]
+ io_analog[1] io_analog[2] io_analog[3] io_analog[7] io_analog[8] io_analog[9] io_analog[4]
+ io_analog[5] io_analog[6] io_clamp_high[0] io_clamp_high[1] io_clamp_high[2] io_clamp_low[0]
+ io_clamp_low[1] io_clamp_low[2] io_in[0] io_in[10] io_in[11] io_in[12] io_in[13]
+ io_in[14] io_in[15] io_in[16] io_in[17] io_in[18] io_in[19] io_in[1] io_in[20] io_in[21]
+ io_in[22] io_in[23] io_in[24] io_in[25] io_in[26] io_in[2] io_in[3] io_in[4] io_in[5]
+ io_in[6] io_in[7] io_in[8] io_in[9] io_in_3v3[0] io_in_3v3[10] io_in_3v3[11] io_in_3v3[12]
+ io_in_3v3[13] io_in_3v3[14] io_in_3v3[15] io_in_3v3[16] io_in_3v3[17] io_in_3v3[18]
+ io_in_3v3[19] io_in_3v3[1] io_in_3v3[20] io_in_3v3[21] io_in_3v3[22] io_in_3v3[23]
+ io_in_3v3[24] io_in_3v3[25] io_in_3v3[26] io_in_3v3[2] io_in_3v3[3] io_in_3v3[4]
+ io_in_3v3[5] io_in_3v3[6] io_in_3v3[7] io_in_3v3[8] io_in_3v3[9] io_oeb[0] io_oeb[10]
+ io_oeb[11] io_oeb[12] io_oeb[13] io_oeb[14] io_oeb[15] io_oeb[16] io_oeb[17] io_oeb[18]
+ io_oeb[19] io_oeb[1] io_oeb[20] io_oeb[21] io_oeb[22] io_oeb[23] io_oeb[24] io_oeb[25]
+ io_oeb[26] io_oeb[2] io_oeb[3] io_oeb[4] io_oeb[5] io_oeb[6] io_oeb[7] io_oeb[8]
+ io_oeb[9] io_out[0] io_out[10] io_out[11] io_out[12] io_out[13] io_out[14] io_out[15]
+ io_out[16] io_out[17] io_out[18] io_out[19] io_out[1] io_out[20] io_out[21] io_out[22]
+ io_out[23] io_out[24] io_out[25] io_out[26] io_out[2] io_out[3] io_out[4] io_out[5]
+ io_out[6] io_out[7] io_out[8] io_out[9] la_data_in[0] la_data_in[100] la_data_in[101]
+ la_data_in[102] la_data_in[103] la_data_in[104] la_data_in[105] la_data_in[106]
+ la_data_in[107] la_data_in[108] la_data_in[109] la_data_in[10] la_data_in[110] la_data_in[111]
+ la_data_in[112] la_data_in[113] la_data_in[114] la_data_in[115] la_data_in[116]
+ la_data_in[117] la_data_in[118] la_data_in[119] la_data_in[11] la_data_in[120] la_data_in[121]
+ la_data_in[122] la_data_in[123] la_data_in[124] la_data_in[125] la_data_in[126]
+ la_data_in[127] la_data_in[12] la_data_in[13] la_data_in[14] la_data_in[15] la_data_in[16]
+ la_data_in[17] la_data_in[18] la_data_in[19] la_data_in[1] la_data_in[20] la_data_in[21]
+ la_data_in[22] la_data_in[23] la_data_in[24] la_data_in[25] la_data_in[26] la_data_in[27]
+ la_data_in[28] la_data_in[29] la_data_in[2] la_data_in[30] la_data_in[31] la_data_in[32]
+ la_data_in[33] la_data_in[34] la_data_in[35] la_data_in[36] la_data_in[37] la_data_in[38]
+ la_data_in[39] la_data_in[3] la_data_in[40] la_data_in[41] la_data_in[42] la_data_in[43]
+ la_data_in[44] la_data_in[45] la_data_in[46] la_data_in[47] la_data_in[48] la_data_in[49]
+ la_data_in[4] la_data_in[50] la_data_in[51] la_data_in[52] la_data_in[53] la_data_in[54]
+ la_data_in[55] la_data_in[56] la_data_in[57] la_data_in[58] la_data_in[59] la_data_in[5]
+ la_data_in[60] la_data_in[61] la_data_in[62] la_data_in[63] la_data_in[64] la_data_in[65]
+ la_data_in[66] la_data_in[67] la_data_in[68] la_data_in[69] la_data_in[6] la_data_in[70]
+ la_data_in[71] la_data_in[72] la_data_in[73] la_data_in[74] la_data_in[75] la_data_in[76]
+ la_data_in[77] la_data_in[78] la_data_in[79] la_data_in[7] la_data_in[80] la_data_in[81]
+ la_data_in[82] la_data_in[83] la_data_in[84] la_data_in[85] la_data_in[86] la_data_in[87]
+ la_data_in[88] la_data_in[89] la_data_in[8] la_data_in[90] la_data_in[91] la_data_in[92]
+ la_data_in[93] la_data_in[94] la_data_in[95] la_data_in[96] la_data_in[97] la_data_in[98]
+ la_data_in[99] la_data_in[9] la_data_out[0] la_data_out[100] la_data_out[101] la_data_out[102]
+ la_data_out[103] la_data_out[104] la_data_out[105] la_data_out[106] la_data_out[107]
+ la_data_out[108] la_data_out[109] la_data_out[10] la_data_out[110] la_data_out[111]
+ la_data_out[112] la_data_out[113] la_data_out[114] la_data_out[115] la_data_out[116]
+ la_data_out[117] la_data_out[118] la_data_out[119] la_data_out[11] la_data_out[120]
+ la_data_out[121] la_data_out[122] la_data_out[123] la_data_out[124] la_data_out[125]
+ la_data_out[126] la_data_out[127] la_data_out[12] la_data_out[13] la_data_out[14]
+ la_data_out[15] la_data_out[16] la_data_out[17] la_data_out[18] la_data_out[19]
+ la_data_out[1] la_data_out[20] la_data_out[21] la_data_out[22] la_data_out[23] la_data_out[24]
+ la_data_out[25] la_data_out[26] la_data_out[27] la_data_out[28] la_data_out[29]
+ la_data_out[2] la_data_out[30] la_data_out[31] la_data_out[32] la_data_out[33] la_data_out[34]
+ la_data_out[35] la_data_out[36] la_data_out[37] la_data_out[38] la_data_out[39]
+ la_data_out[3] la_data_out[40] la_data_out[41] la_data_out[42] la_data_out[43] la_data_out[44]
+ la_data_out[45] la_data_out[46] la_data_out[47] la_data_out[48] la_data_out[49]
+ la_data_out[4] la_data_out[50] la_data_out[51] la_data_out[52] la_data_out[53] la_data_out[54]
+ la_data_out[55] la_data_out[56] la_data_out[57] la_data_out[58] la_data_out[59]
+ la_data_out[5] la_data_out[60] la_data_out[61] la_data_out[62] la_data_out[63] la_data_out[64]
+ la_data_out[65] la_data_out[66] la_data_out[67] la_data_out[68] la_data_out[69]
+ la_data_out[6] la_data_out[70] la_data_out[71] la_data_out[72] la_data_out[73] la_data_out[74]
+ la_data_out[75] la_data_out[76] la_data_out[77] la_data_out[78] la_data_out[79]
+ la_data_out[7] la_data_out[80] la_data_out[81] la_data_out[82] la_data_out[83] la_data_out[84]
+ la_data_out[85] la_data_out[86] la_data_out[87] la_data_out[88] la_data_out[89]
+ la_data_out[8] la_data_out[90] la_data_out[91] la_data_out[92] la_data_out[93] la_data_out[94]
+ la_data_out[95] la_data_out[96] la_data_out[97] la_data_out[98] la_data_out[99]
+ la_data_out[9] la_oenb[0] la_oenb[100] la_oenb[101] la_oenb[102] la_oenb[103] la_oenb[104]
+ la_oenb[105] la_oenb[106] la_oenb[107] la_oenb[108] la_oenb[109] la_oenb[10] la_oenb[110]
+ la_oenb[111] la_oenb[112] la_oenb[113] la_oenb[114] la_oenb[115] la_oenb[116] la_oenb[117]
+ la_oenb[118] la_oenb[119] la_oenb[11] la_oenb[120] la_oenb[121] la_oenb[122] la_oenb[123]
+ la_oenb[124] la_oenb[125] la_oenb[126] la_oenb[127] la_oenb[12] la_oenb[13] la_oenb[14]
+ la_oenb[15] la_oenb[16] la_oenb[17] la_oenb[18] la_oenb[19] la_oenb[1] la_oenb[20]
+ la_oenb[21] la_oenb[22] la_oenb[23] la_oenb[24] la_oenb[25] la_oenb[26] la_oenb[27]
+ la_oenb[28] la_oenb[29] la_oenb[2] la_oenb[30] la_oenb[31] la_oenb[32] la_oenb[33]
+ la_oenb[34] la_oenb[35] la_oenb[36] la_oenb[37] la_oenb[38] la_oenb[39] la_oenb[3]
+ la_oenb[40] la_oenb[41] la_oenb[42] la_oenb[43] la_oenb[44] la_oenb[45] la_oenb[46]
+ la_oenb[47] la_oenb[48] la_oenb[49] la_oenb[4] la_oenb[50] la_oenb[51] la_oenb[52]
+ la_oenb[53] la_oenb[54] la_oenb[55] la_oenb[56] la_oenb[57] la_oenb[58] la_oenb[59]
+ la_oenb[5] la_oenb[60] la_oenb[61] la_oenb[62] la_oenb[63] la_oenb[64] la_oenb[65]
+ la_oenb[66] la_oenb[67] la_oenb[68] la_oenb[69] la_oenb[6] la_oenb[70] la_oenb[71]
+ la_oenb[72] la_oenb[73] la_oenb[74] la_oenb[75] la_oenb[76] la_oenb[77] la_oenb[78]
+ la_oenb[79] la_oenb[7] la_oenb[80] la_oenb[81] la_oenb[82] la_oenb[83] la_oenb[84]
+ la_oenb[85] la_oenb[86] la_oenb[87] la_oenb[88] la_oenb[89] la_oenb[8] la_oenb[90]
+ la_oenb[91] la_oenb[92] la_oenb[93] la_oenb[94] la_oenb[95] la_oenb[96] la_oenb[97]
+ la_oenb[98] la_oenb[99] la_oenb[9] user_clock2 user_irq[0] user_irq[1] user_irq[2]
+ vccd1 vccd2 vdda1 vdda2 vssa1 vssa2 vssd1 vssd2 wb_clk_i wb_rst_i wbs_ack_o wbs_adr_i[0]
+ wbs_adr_i[10] wbs_adr_i[11] wbs_adr_i[12] wbs_adr_i[13] wbs_adr_i[14] wbs_adr_i[15]
+ wbs_adr_i[16] wbs_adr_i[17] wbs_adr_i[18] wbs_adr_i[19] wbs_adr_i[1] wbs_adr_i[20]
+ wbs_adr_i[21] wbs_adr_i[22] wbs_adr_i[23] wbs_adr_i[24] wbs_adr_i[25] wbs_adr_i[26]
+ wbs_adr_i[27] wbs_adr_i[28] wbs_adr_i[29] wbs_adr_i[2] wbs_adr_i[30] wbs_adr_i[31]
+ wbs_adr_i[3] wbs_adr_i[4] wbs_adr_i[5] wbs_adr_i[6] wbs_adr_i[7] wbs_adr_i[8] wbs_adr_i[9]
+ wbs_cyc_i wbs_dat_i[0] wbs_dat_i[10] wbs_dat_i[11] wbs_dat_i[12] wbs_dat_i[13] wbs_dat_i[14]
+ wbs_dat_i[15] wbs_dat_i[16] wbs_dat_i[17] wbs_dat_i[18] wbs_dat_i[19] wbs_dat_i[1]
+ wbs_dat_i[20] wbs_dat_i[21] wbs_dat_i[22] wbs_dat_i[23] wbs_dat_i[24] wbs_dat_i[25]
+ wbs_dat_i[26] wbs_dat_i[27] wbs_dat_i[28] wbs_dat_i[29] wbs_dat_i[2] wbs_dat_i[30]
+ wbs_dat_i[31] wbs_dat_i[3] wbs_dat_i[4] wbs_dat_i[5] wbs_dat_i[6] wbs_dat_i[7] wbs_dat_i[8]
+ wbs_dat_i[9] wbs_dat_o[0] wbs_dat_o[10] wbs_dat_o[11] wbs_dat_o[12] wbs_dat_o[13]
+ wbs_dat_o[14] wbs_dat_o[15] wbs_dat_o[16] wbs_dat_o[17] wbs_dat_o[18] wbs_dat_o[19]
+ wbs_dat_o[1] wbs_dat_o[20] wbs_dat_o[21] wbs_dat_o[22] wbs_dat_o[23] wbs_dat_o[24]
+ wbs_dat_o[25] wbs_dat_o[26] wbs_dat_o[27] wbs_dat_o[28] wbs_dat_o[29] wbs_dat_o[2]
+ wbs_dat_o[30] wbs_dat_o[31] wbs_dat_o[3] wbs_dat_o[4] wbs_dat_o[5] wbs_dat_o[6]
+ wbs_dat_o[7] wbs_dat_o[8] wbs_dat_o[9] wbs_sel_i[0] wbs_sel_i[1] wbs_sel_i[2] wbs_sel_i[3]
+ wbs_stb_i wbs_we_i
Xskullfet_inverter_xl_0 vssa1 vdda1 io_analog[3] io_analog[2] skullfet_inverter_xl
Xskullfet_inverter_0 vssa1 vdda1 io_analog[1] skullfet_inverter_0/A skullfet_inverter_0/m1_730_2174#
+ skullfet_inverter_0/m1_568_1148# skullfet_inverter
C0 skullfet_inverter_0/m1_568_1148# io_analog[1] 0.00fF
C1 skullfet_logo_0/m2_73000_44600# skullfet_logo_0/m1_73000_44600# 16508.90fF
C2 io_analog[6] io_clamp_low[2] 0.53fF
C3 skullfet_logo_0/m5_73000_44600# skullfet_logo_0/m4_73000_44600# 8377.67fF
C4 io_clamp_low[1] io_analog[5] 0.53fF
C5 skullfet_logo_0/m3_73000_44600# skullfet_logo_0/m2_73000_44600# 10595.30fF
C6 skullfet_logo_0/m1_56800_114800# skullfet_logo_0/m2_56800_114800# 11233.90fF
C7 skullfet_inverter_0/m1_568_1148# skullfet_inverter_0/A 0.03fF
C8 skullfet_logo_0/m4_73000_217400# skullfet_logo_0/m3_73000_217400# 10348.90fF
C9 skullfet_inverter_0/A io_analog[0] 0.96fF
C10 io_clamp_high[1] io_analog[5] 0.53fF
C11 io_clamp_low[2] io_clamp_high[2] 0.53fF
C12 io_clamp_high[0] io_analog[4] 0.53fF
C13 io_clamp_low[0] io_clamp_high[0] 0.53fF
C14 io_clamp_high[1] io_clamp_low[1] 0.53fF
C15 io_analog[1] skullfet_inverter_0/m1_730_2174# 0.09fF
C16 io_analog[6] io_clamp_high[2] 0.53fF
C17 skullfet_logo_0/m3_73000_44600# skullfet_logo_0/m4_73000_44600# 10348.90fF
C18 skullfet_logo_0/m4_56800_114800# skullfet_logo_0/m3_56800_114800# 7042.14fF
C19 io_clamp_low[0] io_analog[4] 0.53fF
C20 skullfet_logo_0/m2_73000_217400# skullfet_logo_0/m3_73000_217400# 10595.30fF
C21 skullfet_logo_0/m2_73000_217400# skullfet_logo_0/m1_73000_217400# 16508.90fF
C22 skullfet_logo_0/m4_73000_217400# skullfet_logo_0/m5_73000_217400# 8377.67fF
C23 skullfet_logo_0/m2_56800_114800# skullfet_logo_0/m3_56800_114800# 7209.81fF
C24 skullfet_logo_0/m4_56800_114800# skullfet_logo_0/m5_56800_114800# 5700.78fF
C25 io_analog[4] vssa1 -8.76fF
C26 io_analog[5] vssa1 -8.40fF
C27 io_analog[6] vssa1 -8.64fF
C28 io_in_3v3[0] vssa1 0.41fF
C29 io_oeb[26] vssa1 0.61fF
C30 io_in[0] vssa1 0.41fF
C31 io_out[26] vssa1 0.61fF
C32 io_out[0] vssa1 0.41fF
C33 io_in[26] vssa1 0.61fF
C34 io_oeb[0] vssa1 0.41fF
C35 io_in_3v3[26] vssa1 0.61fF
C36 io_in_3v3[1] vssa1 0.41fF
C37 io_oeb[25] vssa1 0.61fF
C38 io_in[1] vssa1 0.41fF
C39 io_out[25] vssa1 0.61fF
C40 io_out[1] vssa1 0.41fF
C41 io_in[25] vssa1 0.61fF
C42 io_oeb[1] vssa1 0.41fF
C43 io_in_3v3[25] vssa1 0.61fF
C44 io_in_3v3[2] vssa1 0.41fF
C45 io_oeb[24] vssa1 0.61fF
C46 io_in[2] vssa1 0.41fF
C47 io_out[24] vssa1 0.61fF
C48 io_out[2] vssa1 0.41fF
C49 io_in[24] vssa1 0.61fF
C50 io_oeb[2] vssa1 -0.20fF
C51 io_in_3v3[24] vssa1 0.00fF
C52 io_in_3v3[3] vssa1 0.41fF
C53 gpio_noesd[17] vssa1 0.61fF
C54 io_in[3] vssa1 0.41fF
C55 gpio_analog[17] vssa1 0.61fF
C56 io_out[3] vssa1 0.41fF
C57 io_oeb[3] vssa1 0.41fF
C58 io_in_3v3[4] vssa1 0.41fF
C59 io_in[4] vssa1 0.41fF
C60 io_out[4] vssa1 0.41fF
C61 io_oeb[4] vssa1 0.41fF
C62 io_oeb[23] vssa1 0.61fF
C63 io_out[23] vssa1 0.61fF
C64 io_in[23] vssa1 0.61fF
C65 io_in_3v3[23] vssa1 0.61fF
C66 gpio_noesd[16] vssa1 0.61fF
C67 gpio_analog[16] vssa1 0.00fF
C68 io_in_3v3[5] vssa1 0.41fF
C69 io_in[5] vssa1 -0.20fF
C70 io_out[5] vssa1 0.41fF
C71 io_oeb[5] vssa1 0.41fF
C72 io_oeb[22] vssa1 0.61fF
C73 io_out[22] vssa1 0.61fF
C74 io_in[22] vssa1 0.61fF
C75 io_in_3v3[22] vssa1 0.61fF
C76 gpio_noesd[15] vssa1 0.00fF
C77 gpio_analog[15] vssa1 0.61fF
C78 io_in_3v3[6] vssa1 -0.20fF
C79 io_in[6] vssa1 0.41fF
C80 io_out[6] vssa1 0.41fF
C81 io_oeb[6] vssa1 0.41fF
C82 io_oeb[21] vssa1 0.61fF
C83 io_out[21] vssa1 0.61fF
C84 io_in[21] vssa1 0.61fF
C85 io_in_3v3[21] vssa1 0.61fF
C86 gpio_noesd[14] vssa1 0.61fF
C87 gpio_analog[14] vssa1 0.61fF
C88 vssd2 vssa1 -5.19fF
C89 vssd1 vssa1 1.13fF
C90 vdda2 vssa1 -5.19fF
C91 io_oeb[20] vssa1 0.61fF
C92 io_out[20] vssa1 0.61fF
C93 io_in[20] vssa1 0.61fF
C94 io_in_3v3[20] vssa1 0.61fF
C95 gpio_noesd[13] vssa1 0.61fF
C96 gpio_analog[13] vssa1 0.61fF
C97 gpio_analog[0] vssa1 0.41fF
C98 gpio_noesd[0] vssa1 0.41fF
C99 io_in_3v3[7] vssa1 0.41fF
C100 io_in[7] vssa1 0.41fF
C101 io_out[7] vssa1 0.41fF
C102 io_oeb[7] vssa1 0.41fF
C103 io_oeb[19] vssa1 0.61fF
C104 io_out[19] vssa1 0.61fF
C105 io_in[19] vssa1 0.61fF
C106 io_in_3v3[19] vssa1 0.61fF
C107 gpio_noesd[12] vssa1 0.61fF
C108 gpio_analog[12] vssa1 0.61fF
C109 gpio_analog[1] vssa1 0.41fF
C110 gpio_noesd[1] vssa1 0.41fF
C111 io_in_3v3[8] vssa1 0.41fF
C112 io_in[8] vssa1 0.41fF
C113 io_out[8] vssa1 -0.20fF
C114 io_oeb[8] vssa1 0.41fF
C115 io_oeb[18] vssa1 0.61fF
C116 io_out[18] vssa1 0.61fF
C117 io_in_3v3[18] vssa1 0.61fF
C118 gpio_noesd[11] vssa1 0.61fF
C119 gpio_analog[11] vssa1 0.61fF
C120 gpio_analog[2] vssa1 0.41fF
C121 gpio_noesd[2] vssa1 0.41fF
C122 io_in_3v3[9] vssa1 0.41fF
C123 io_in[9] vssa1 0.41fF
C124 io_out[9] vssa1 0.41fF
C125 io_oeb[9] vssa1 0.41fF
C126 io_oeb[17] vssa1 0.61fF
C127 io_out[17] vssa1 0.00fF
C128 io_in[17] vssa1 0.61fF
C129 io_in_3v3[17] vssa1 0.61fF
C130 gpio_noesd[10] vssa1 0.61fF
C131 gpio_analog[10] vssa1 0.61fF
C132 gpio_analog[3] vssa1 0.41fF
C133 gpio_noesd[3] vssa1 0.41fF
C134 io_in_3v3[10] vssa1 0.41fF
C135 io_in[10] vssa1 0.41fF
C136 io_out[10] vssa1 0.41fF
C137 io_oeb[10] vssa1 0.41fF
C138 io_oeb[16] vssa1 0.00fF
C139 io_out[16] vssa1 0.61fF
C140 io_in[16] vssa1 0.61fF
C141 io_in_3v3[16] vssa1 0.61fF
C142 gpio_noesd[9] vssa1 0.61fF
C143 gpio_analog[9] vssa1 0.61fF
C144 gpio_analog[4] vssa1 0.41fF
C145 gpio_noesd[4] vssa1 0.41fF
C146 io_in_3v3[11] vssa1 0.41fF
C147 io_in[11] vssa1 0.41fF
C148 io_out[11] vssa1 0.41fF
C149 io_oeb[11] vssa1 0.41fF
C150 io_oeb[15] vssa1 0.61fF
C151 io_out[15] vssa1 0.61fF
C152 io_in[15] vssa1 0.61fF
C153 io_in_3v3[15] vssa1 0.61fF
C154 gpio_noesd[8] vssa1 0.61fF
C155 gpio_analog[8] vssa1 0.61fF
C156 gpio_analog[5] vssa1 0.41fF
C157 gpio_noesd[5] vssa1 0.41fF
C158 io_in_3v3[12] vssa1 0.41fF
C159 io_in[12] vssa1 0.41fF
C160 io_out[12] vssa1 0.41fF
C161 io_oeb[12] vssa1 0.41fF
C162 io_oeb[14] vssa1 0.61fF
C163 io_out[14] vssa1 0.61fF
C164 io_in[14] vssa1 0.61fF
C165 io_in_3v3[14] vssa1 0.61fF
C166 gpio_noesd[7] vssa1 0.61fF
C167 gpio_analog[7] vssa1 0.00fF
C168 vssa2 vssa1 1.21fF
C169 gpio_analog[6] vssa1 0.41fF
C170 gpio_noesd[6] vssa1 0.41fF
C171 io_in_3v3[13] vssa1 0.41fF
C172 io_in[13] vssa1 -0.20fF
C173 io_out[13] vssa1 0.41fF
C174 io_oeb[13] vssa1 0.41fF
C175 vccd1 vssa1 0.85fF
C176 vccd2 vssa1 0.91fF
C177 io_analog[10] vssa1 0.41fF
C178 io_clamp_high[0] vssa1 -2.60fF
C179 io_clamp_low[0] vssa1 0.82fF
C180 io_clamp_high[1] vssa1 0.71fF
C181 io_clamp_low[1] vssa1 0.55fF
C182 io_clamp_high[2] vssa1 0.66fF
C183 io_clamp_low[2] vssa1 0.50fF
C184 io_analog[7] vssa1 0.66fF
C185 io_analog[8] vssa1 0.76fF
C186 io_analog[9] vssa1 0.87fF
C187 user_irq[2] vssa1 0.63fF
C188 user_irq[1] vssa1 0.63fF
C189 user_irq[0] vssa1 0.63fF
C190 user_clock2 vssa1 0.63fF
C191 la_oenb[127] vssa1 0.63fF
C192 la_data_in[127] vssa1 0.63fF
C193 la_oenb[126] vssa1 0.63fF
C194 la_data_out[126] vssa1 0.63fF
C195 la_data_in[126] vssa1 0.63fF
C196 la_oenb[125] vssa1 0.63fF
C197 la_data_out[125] vssa1 0.63fF
C198 la_data_in[125] vssa1 0.63fF
C199 la_oenb[124] vssa1 0.63fF
C200 la_data_out[124] vssa1 0.63fF
C201 la_data_in[124] vssa1 0.63fF
C202 la_oenb[123] vssa1 0.63fF
C203 la_data_out[123] vssa1 0.63fF
C204 la_oenb[122] vssa1 0.63fF
C205 la_data_out[122] vssa1 0.63fF
C206 la_data_in[122] vssa1 0.63fF
C207 la_oenb[121] vssa1 0.63fF
C208 la_data_out[121] vssa1 0.63fF
C209 la_data_in[121] vssa1 0.63fF
C210 la_oenb[120] vssa1 0.63fF
C211 la_data_out[120] vssa1 0.63fF
C212 la_data_in[120] vssa1 0.63fF
C213 la_oenb[119] vssa1 0.63fF
C214 la_data_out[119] vssa1 0.63fF
C215 la_data_in[119] vssa1 0.63fF
C216 la_oenb[118] vssa1 0.63fF
C217 la_data_out[118] vssa1 0.63fF
C218 la_data_in[118] vssa1 0.63fF
C219 la_oenb[117] vssa1 0.63fF
C220 la_data_out[117] vssa1 0.63fF
C221 la_data_in[117] vssa1 0.63fF
C222 la_data_out[116] vssa1 0.63fF
C223 la_data_in[116] vssa1 0.63fF
C224 la_oenb[115] vssa1 0.63fF
C225 la_data_out[115] vssa1 0.63fF
C226 la_data_in[115] vssa1 0.63fF
C227 la_oenb[114] vssa1 0.63fF
C228 la_data_out[114] vssa1 0.63fF
C229 la_data_in[114] vssa1 0.63fF
C230 la_oenb[113] vssa1 0.63fF
C231 la_data_out[113] vssa1 0.63fF
C232 la_data_in[113] vssa1 0.63fF
C233 la_oenb[112] vssa1 0.63fF
C234 la_data_in[112] vssa1 0.63fF
C235 la_oenb[111] vssa1 0.63fF
C236 la_data_out[111] vssa1 0.63fF
C237 la_data_in[111] vssa1 0.63fF
C238 la_oenb[110] vssa1 0.63fF
C239 la_data_out[110] vssa1 0.63fF
C240 la_data_in[110] vssa1 0.63fF
C241 la_oenb[109] vssa1 0.63fF
C242 la_data_out[109] vssa1 0.63fF
C243 la_data_in[109] vssa1 0.63fF
C244 la_oenb[108] vssa1 0.63fF
C245 la_data_out[108] vssa1 0.63fF
C246 la_oenb[107] vssa1 0.63fF
C247 la_data_out[107] vssa1 0.63fF
C248 la_data_in[107] vssa1 0.63fF
C249 la_oenb[106] vssa1 0.63fF
C250 la_data_out[106] vssa1 0.63fF
C251 la_oenb[105] vssa1 0.63fF
C252 la_data_out[105] vssa1 0.63fF
C253 la_data_in[105] vssa1 0.63fF
C254 la_oenb[104] vssa1 0.63fF
C255 la_data_out[104] vssa1 0.63fF
C256 la_data_in[104] vssa1 0.63fF
C257 la_oenb[103] vssa1 0.63fF
C258 la_data_out[103] vssa1 0.63fF
C259 la_data_in[103] vssa1 0.63fF
C260 la_oenb[102] vssa1 0.63fF
C261 la_data_out[102] vssa1 0.63fF
C262 la_data_in[102] vssa1 0.63fF
C263 la_data_out[101] vssa1 0.63fF
C264 la_data_in[101] vssa1 0.63fF
C265 la_oenb[100] vssa1 0.63fF
C266 la_data_out[100] vssa1 0.63fF
C267 la_data_in[100] vssa1 0.63fF
C268 la_oenb[99] vssa1 0.63fF
C269 la_data_out[99] vssa1 0.63fF
C270 la_data_in[99] vssa1 0.63fF
C271 la_oenb[98] vssa1 0.63fF
C272 la_data_out[98] vssa1 0.63fF
C273 la_data_in[98] vssa1 0.63fF
C274 la_oenb[97] vssa1 0.63fF
C275 la_data_in[97] vssa1 0.63fF
C276 la_oenb[96] vssa1 0.63fF
C277 la_data_out[96] vssa1 0.63fF
C278 la_data_in[96] vssa1 0.63fF
C279 la_oenb[95] vssa1 0.63fF
C280 la_data_out[95] vssa1 0.63fF
C281 la_data_in[95] vssa1 0.63fF
C282 la_oenb[94] vssa1 0.63fF
C283 la_data_out[94] vssa1 0.63fF
C284 la_data_in[94] vssa1 0.63fF
C285 la_oenb[93] vssa1 0.63fF
C286 la_data_out[93] vssa1 0.63fF
C287 la_data_in[93] vssa1 0.00fF
C288 la_oenb[92] vssa1 0.63fF
C289 la_data_out[92] vssa1 0.63fF
C290 la_data_in[92] vssa1 0.63fF
C291 la_oenb[91] vssa1 0.63fF
C292 la_data_out[91] vssa1 0.63fF
C293 la_oenb[90] vssa1 0.63fF
C294 la_data_out[90] vssa1 0.63fF
C295 la_data_in[90] vssa1 0.63fF
C296 la_oenb[89] vssa1 0.63fF
C297 la_data_out[89] vssa1 0.63fF
C298 la_data_in[89] vssa1 0.63fF
C299 la_oenb[88] vssa1 0.63fF
C300 la_data_out[88] vssa1 0.63fF
C301 la_data_in[88] vssa1 0.63fF
C302 la_oenb[87] vssa1 0.63fF
C303 la_data_out[87] vssa1 0.63fF
C304 la_data_in[87] vssa1 0.63fF
C305 la_oenb[86] vssa1 0.00fF
C306 la_data_out[86] vssa1 0.63fF
C307 la_data_in[86] vssa1 0.63fF
C308 la_oenb[85] vssa1 0.63fF
C309 la_data_out[85] vssa1 0.63fF
C310 la_data_in[85] vssa1 0.63fF
C311 la_oenb[84] vssa1 0.63fF
C312 la_data_out[84] vssa1 0.63fF
C313 la_data_in[84] vssa1 0.63fF
C314 la_oenb[83] vssa1 0.63fF
C315 la_data_out[83] vssa1 0.63fF
C316 la_data_in[83] vssa1 0.63fF
C317 la_oenb[82] vssa1 0.63fF
C318 la_data_out[82] vssa1 0.00fF
C319 la_data_in[82] vssa1 0.63fF
C320 la_oenb[81] vssa1 0.63fF
C321 la_data_out[81] vssa1 0.63fF
C322 la_data_in[81] vssa1 0.63fF
C323 la_oenb[80] vssa1 0.63fF
C324 la_data_out[80] vssa1 0.63fF
C325 la_data_in[80] vssa1 0.63fF
C326 la_oenb[79] vssa1 0.63fF
C327 la_data_out[79] vssa1 0.63fF
C328 la_data_in[79] vssa1 0.63fF
C329 la_oenb[78] vssa1 0.63fF
C330 la_data_out[78] vssa1 0.63fF
C331 la_data_in[78] vssa1 0.63fF
C332 la_oenb[77] vssa1 0.63fF
C333 la_data_out[77] vssa1 0.63fF
C334 la_data_in[77] vssa1 0.63fF
C335 la_oenb[76] vssa1 0.63fF
C336 la_data_out[76] vssa1 0.63fF
C337 la_data_in[76] vssa1 0.00fF
C338 la_oenb[75] vssa1 0.63fF
C339 la_data_out[75] vssa1 0.63fF
C340 la_data_in[75] vssa1 0.63fF
C341 la_oenb[74] vssa1 0.63fF
C342 la_data_out[74] vssa1 0.63fF
C343 la_data_in[74] vssa1 0.63fF
C344 la_oenb[73] vssa1 0.63fF
C345 la_data_out[73] vssa1 0.63fF
C346 la_data_in[73] vssa1 0.63fF
C347 la_oenb[72] vssa1 0.63fF
C348 la_data_out[72] vssa1 0.63fF
C349 la_data_in[72] vssa1 0.63fF
C350 la_oenb[71] vssa1 0.00fF
C351 la_data_out[71] vssa1 0.63fF
C352 la_data_in[71] vssa1 0.63fF
C353 la_oenb[70] vssa1 0.63fF
C354 la_data_out[70] vssa1 0.63fF
C355 la_data_in[70] vssa1 0.63fF
C356 la_oenb[69] vssa1 0.63fF
C357 la_data_out[69] vssa1 0.63fF
C358 la_data_in[69] vssa1 0.63fF
C359 la_oenb[68] vssa1 0.63fF
C360 la_data_out[68] vssa1 0.63fF
C361 la_data_in[68] vssa1 0.63fF
C362 la_oenb[67] vssa1 0.63fF
C363 la_data_in[67] vssa1 0.63fF
C364 la_oenb[66] vssa1 0.63fF
C365 la_data_out[66] vssa1 0.63fF
C366 la_data_in[66] vssa1 0.63fF
C367 la_oenb[65] vssa1 0.63fF
C368 la_data_out[65] vssa1 0.26fF
C369 la_data_in[65] vssa1 0.63fF
C370 la_oenb[64] vssa1 0.63fF
C371 la_data_out[64] vssa1 0.63fF
C372 la_data_in[64] vssa1 0.63fF
C373 la_oenb[63] vssa1 0.63fF
C374 la_data_out[63] vssa1 0.63fF
C375 la_data_in[63] vssa1 0.63fF
C376 la_oenb[62] vssa1 0.63fF
C377 la_data_out[62] vssa1 0.63fF
C378 la_data_in[62] vssa1 0.63fF
C379 la_oenb[61] vssa1 0.63fF
C380 la_data_out[61] vssa1 0.63fF
C381 la_oenb[60] vssa1 0.63fF
C382 la_data_out[60] vssa1 0.63fF
C383 la_data_in[60] vssa1 0.63fF
C384 la_oenb[59] vssa1 0.63fF
C385 la_data_out[59] vssa1 0.63fF
C386 la_data_in[59] vssa1 0.63fF
C387 la_oenb[58] vssa1 0.63fF
C388 la_data_out[58] vssa1 0.63fF
C389 la_data_in[58] vssa1 0.63fF
C390 la_oenb[57] vssa1 0.63fF
C391 la_data_out[57] vssa1 0.63fF
C392 la_data_in[57] vssa1 0.63fF
C393 la_data_out[56] vssa1 0.63fF
C394 la_data_in[56] vssa1 0.63fF
C395 la_oenb[55] vssa1 0.63fF
C396 la_data_out[55] vssa1 0.63fF
C397 la_data_in[55] vssa1 0.63fF
C398 la_oenb[54] vssa1 0.63fF
C399 la_data_out[54] vssa1 0.63fF
C400 la_data_in[54] vssa1 0.63fF
C401 la_oenb[53] vssa1 0.63fF
C402 la_data_out[53] vssa1 0.63fF
C403 la_data_in[53] vssa1 0.63fF
C404 la_oenb[52] vssa1 0.63fF
C405 la_data_in[52] vssa1 0.63fF
C406 la_oenb[51] vssa1 0.63fF
C407 la_data_out[51] vssa1 0.63fF
C408 la_data_in[51] vssa1 0.63fF
C409 la_oenb[50] vssa1 0.63fF
C410 la_data_in[50] vssa1 0.63fF
C411 la_oenb[49] vssa1 0.63fF
C412 la_data_out[49] vssa1 0.63fF
C413 la_data_in[49] vssa1 0.63fF
C414 la_oenb[48] vssa1 0.63fF
C415 la_data_out[48] vssa1 0.63fF
C416 la_data_in[48] vssa1 0.63fF
C417 la_oenb[47] vssa1 0.63fF
C418 la_data_out[47] vssa1 0.63fF
C419 la_data_in[47] vssa1 0.63fF
C420 la_oenb[46] vssa1 0.63fF
C421 la_data_out[46] vssa1 0.63fF
C422 la_oenb[45] vssa1 0.63fF
C423 la_data_out[45] vssa1 0.63fF
C424 la_data_in[45] vssa1 0.63fF
C425 la_oenb[44] vssa1 0.63fF
C426 la_data_out[44] vssa1 0.63fF
C427 la_data_in[44] vssa1 0.63fF
C428 la_oenb[43] vssa1 0.63fF
C429 la_data_out[43] vssa1 0.63fF
C430 la_data_in[43] vssa1 0.63fF
C431 la_oenb[42] vssa1 0.63fF
C432 la_data_out[42] vssa1 0.63fF
C433 la_data_in[42] vssa1 0.63fF
C434 la_data_out[41] vssa1 0.63fF
C435 la_data_in[41] vssa1 0.63fF
C436 la_oenb[40] vssa1 0.63fF
C437 la_data_out[40] vssa1 0.63fF
C438 la_data_in[40] vssa1 0.63fF
C439 la_oenb[39] vssa1 0.63fF
C440 la_data_out[39] vssa1 0.63fF
C441 la_data_in[39] vssa1 0.63fF
C442 la_oenb[38] vssa1 0.63fF
C443 la_data_out[38] vssa1 0.63fF
C444 la_data_in[38] vssa1 0.63fF
C445 la_oenb[37] vssa1 0.63fF
C446 la_data_out[37] vssa1 0.26fF
C447 la_data_in[37] vssa1 0.63fF
C448 la_oenb[36] vssa1 0.63fF
C449 la_data_out[36] vssa1 0.63fF
C450 la_data_in[36] vssa1 0.63fF
C451 la_oenb[35] vssa1 0.63fF
C452 la_data_in[35] vssa1 0.63fF
C453 la_oenb[34] vssa1 0.63fF
C454 la_data_out[34] vssa1 0.63fF
C455 la_data_in[34] vssa1 0.63fF
C456 la_oenb[33] vssa1 0.63fF
C457 la_data_out[33] vssa1 0.63fF
C458 la_data_in[33] vssa1 0.63fF
C459 la_oenb[32] vssa1 0.63fF
C460 la_data_out[32] vssa1 0.63fF
C461 la_data_in[32] vssa1 0.63fF
C462 la_oenb[31] vssa1 0.63fF
C463 la_data_out[31] vssa1 0.63fF
C464 la_data_in[31] vssa1 0.00fF
C465 la_oenb[30] vssa1 0.63fF
C466 la_data_out[30] vssa1 0.63fF
C467 la_data_in[30] vssa1 0.63fF
C468 la_oenb[29] vssa1 0.63fF
C469 la_data_out[29] vssa1 0.63fF
C470 la_data_in[29] vssa1 0.63fF
C471 la_oenb[28] vssa1 0.63fF
C472 la_data_out[28] vssa1 0.63fF
C473 la_data_in[28] vssa1 0.63fF
C474 la_oenb[27] vssa1 0.63fF
C475 la_data_out[27] vssa1 0.63fF
C476 la_data_in[27] vssa1 0.63fF
C477 la_oenb[26] vssa1 0.00fF
C478 la_data_out[26] vssa1 0.63fF
C479 la_data_in[26] vssa1 0.63fF
C480 la_oenb[25] vssa1 0.63fF
C481 la_data_out[25] vssa1 0.63fF
C482 la_data_in[25] vssa1 0.63fF
C483 la_oenb[24] vssa1 0.63fF
C484 la_data_out[24] vssa1 0.63fF
C485 la_data_in[24] vssa1 0.63fF
C486 la_oenb[23] vssa1 0.63fF
C487 la_data_out[23] vssa1 0.63fF
C488 la_data_in[23] vssa1 0.63fF
C489 la_oenb[22] vssa1 0.63fF
C490 la_data_out[22] vssa1 0.63fF
C491 la_data_in[22] vssa1 0.63fF
C492 la_oenb[21] vssa1 0.63fF
C493 la_data_out[21] vssa1 0.63fF
C494 la_data_in[21] vssa1 0.63fF
C495 la_oenb[20] vssa1 0.63fF
C496 la_data_out[20] vssa1 0.00fF
C497 la_data_in[20] vssa1 0.63fF
C498 la_oenb[19] vssa1 0.63fF
C499 la_data_out[19] vssa1 0.63fF
C500 la_data_in[19] vssa1 0.63fF
C501 la_oenb[18] vssa1 0.63fF
C502 la_data_out[18] vssa1 0.63fF
C503 la_data_in[18] vssa1 0.63fF